load_data.m
% Step 1: Load IEEE 30-bus data
baseMVA = 100;

% BUS DATA
% [Bus, Type(1=load,2=gen,3=slack), P_load, Q_load, V_magnitude, V_angle]
busdata = [
    1  3  0     0     1.060  0
    2  2  21.7  12.7  1.043  0
    3  1  2.4   1.2   1.000  0
    4  1  7.6   1.6   1.000  0
    5  2  94.2  19.0  1.010  0
    6  1  0     0     1.000  0
    7  1  22.8  10.9  1.000  0
    8  2  30.0  30.0  1.010  0
    9  1  0     0     1.000  0
    10 1  5.8   2.0   1.000  0
    11 2  0     0     1.082  0
    12 1  11.2  7.5   1.000  0
    13 2  0     0     1.071  0
    14 1  6.2   1.6   1.000  0
    15 1  8.2   2.5   1.000  0
    16 1  3.5   1.8   1.000  0
    17 1  9.0   5.8   1.000  0
    18 1  3.2   0.9   1.000  0
    19 1  9.5   3.4   1.000  0
    20 1  2.2   0.7   1.000  0
    21 1  17.5  11.2  1.000  0
    22 1  0     0     1.000  0
    23 1  3.2   1.6   1.000  0
    24 1  8.7   6.7   1.000  0
    25 1  0     0     1.000  0
    26 1  3.5   2.3   1.000  0
    27 1  0     0     1.000  0
    28 1  0     0     1.000  0
    29 1  2.4   0.9   1.000  0
    30 1  10.6  1.9   1.000  0
    ];

% LINE DATA
% [From, To, R, X, B]
linedata = [
    1  2   0.0192 0.0575 0.0528
    1  3   0.0452 0.1652 0.0408
    2  4   0.0570 0.1737 0.0368
    3  4   0.0132 0.0379 0.0084
    2  5   0.0472 0.1983 0.0418
    2  6   0.0581 0.1763 0.0374
    4  6   0.0119 0.0414 0.0090
    5  7   0.0460 0.1160 0.0204
    6  7   0.0267 0.0820 0.0170
    6  8   0.0120 0.0420 0.0090
    6  9   0      0.2080 0
    6  10  0      0.5560 0
    9  11  0      0.2080 0
    9  10  0      0.1100 0
    4  12  0      0.2560 0
    12 13  0      0.1400 0
    12 14  0.1231 0.2559 0
    12 15  0.0662 0.1304 0
    12 16  0.0945 0.1987 0
    14 15  0.2210 0.1997 0
    16 17  0.0824 0.1923 0
    15 18  0.1070 0.2185 0
    18 19  0.0639 0.1292 0
    19 20  0.0340 0.0680 0
    10 20  0.0936 0.2090 0
    10 21  0.0348 0.0749 0
    10 22  0.0727 0.1499 0
    21 22  0.0116 0.0236 0
    15 23  0.1000 0.2020 0
    22 24  0.1150 0.1790 0
    23 24  0.1320 0.2700 0
    24 25  0.1885 0.3292 0
    25 26  0.2544 0.3800 0
    25 27  0.1093 0.2087 0
    28 27  0      0.3960 0
    27 29  0.2198 0.4153 0
    27 30  0.3202 0.6027 0
    29 30  0.2399 0.4533 0
    8  28  0.0636 0.2000 0.0428
    6  28  0.0169 0.0599 0.0130
    10 17  0.0824 0.1923 0
    ];

disp('Data loaded.');
disp(['Buses: ' num2str(size(busdata,1))]);
disp(['Lines: ' num2str(size(linedata,1))]);